/*--------------------------------*- C++ -*----------------------------------*\
| =========                 |                                                 |
| \\      /  F ield         | OpenFOAM: The Open Source CFD Toolbox           |
|  \\    /   O peration     | Version:  v1706                                 |
|   \\  /    A nd           | Web:      www.OpenFOAM.com                      |
|    \\/     M anipulation  |                                                 |
\*---------------------------------------------------------------------------*/
FoamFile
{
    version     2.0;
    format      ascii;
    class       dictionary;
    object      blockMeshDict;
}
// * * * * * * * * * * * * * * * * * * * * * * * * * * * * * * * * * * * * * //

scale 1e-3; // vertices are in mm

vertices
(
    ( 0    0    0  )	//  0
    (1000  0    0  )	//  1
    (1000 10    0  )	//  2
    ( 0   10    0  )	//  3
    ( 0    0   1000)	//  4
    (1000  0   1000)	//  5
    (1000 10   1000)	//  6
    ( 0   10   1000)	//  7
    ( 400  0    0  )	//  8
    ( 600  0    0  )	//  9
    ( 600 10    0  )	// 10
    ( 400 10    0  )	// 11
    ( 400  0   1000)    // 12
    ( 600  0   1000)    // 13
    ( 600 10   1000)    // 14
    ( 400 10   1000)    // 15
);

blocks
(
    hex (0 8 11 3 4 12 15 7) (24 1 60) simpleGrading (1 1 1)
    hex (8 9 10 11 12 13 14 15) (12 1 60) simpleGrading (1 1 1)
    hex (9 1 2 10 13 5 6 14) (24 1 60) simpleGrading (1 1 1)
);

edges
(
);


patches
(
    patch
          inlet
    (
	(8 9 10 11)
    )
);

mergePatchPairs
(
);

// ************************************************************************* //
