/*--------------------------------*- C++ -*----------------------------------*\
| =========                 |                                                 |
| \\      /  F ield         | OpenFOAM: The Open Source CFD Toolbox           |
|  \\    /   O peration     | Version:  v1706                                 |
|   \\  /    A nd           | Web:      www.OpenFOAM.com                      |
|    \\/     M anipulation  |                                                 |
\*---------------------------------------------------------------------------*/
FoamFile
{
    version     2.0;
    format      ascii;
    class       dictionary;
    object      blockMeshDict;
}
// * * * * * * * * * * * * * * * * * * * * * * * * * * * * * * * * * * * * * //

scale 1e-3; // vertices are in mm

vertices
(
    ( 800  0      0)	//  0
    ( 700  0      0)	//  1
    ( 800  0    300)	//  2
    ( 700  0    300)	//  3
    ( 800  0    400)	//  4
    ( 550  0    400)	//  5
    ( 800  0    450)	//  6
    ( 550  0    450)	//  7
    ( 800  0    550)	//  8
    ( 550  0    550)	//  9
    ( 800  0    900)	// 10
    ( 550  0    900)	// 11
    ( 950  0   1100)    // 12
    ( 550  0   1100)    // 13
    ( 950  0   1300)    // 14
    ( 550  0   1300)    // 15
    ( 800  0   1300)    // 16
    ( 550  0   1550)    // 17
    ( 800  0   1550)    // 18
    (  50  0   2000)    // 19
    (1000  0   2000)    // 20
    (  50  0   2500)    // 21
    (1000  0   2500)    // 22
    (  50  0   3000)    // 23
    ( 500  0   3000)    // 24
    ( 150  0   3250)    // 25
    ( 250  0   3250)    // 26
// SECOND SET OF POINTS AT Y=1mm for 2D geometry
    ( 800   1     0)    // 27
    ( 700   1     0)    // 28
    ( 800   1   300)    // 29
    ( 700   1   300)    // 30
    ( 800   1   400)    // 31
    ( 550   1   400)    // 32
    ( 800   1   450)    // 33
    ( 550   1   450)    // 34
    ( 800   1   550)    // 35
    ( 550   1   550)    // 36
    ( 800   1   900)    // 37
    ( 550   1   900)    // 38
    ( 950   1  1100)    // 39
    ( 550   1  1100)    // 40
    ( 950   1  1300)    // 41
    ( 550   1  1300)    // 42
    ( 800   1  1300)    // 43
    ( 550   1  1550)    // 44
    ( 800   1  1550)    // 45
    (  50   1  2000)    // 46
    (1000   1  2000)    // 47
    (  50   1  2500)    // 48
    (1000   1  2500)    // 49
    (  50   1  3000)    // 50
    ( 500   1  3000)    // 51
    ( 150   1  3250)    // 52
    ( 250   1  3250)    // 53
);

blocks
(
    hex (1 0 27 28 3 2 29 30) (20 1 30) simpleGrading (1 1 1)		// A
    hex (3 2 29 30 5 4 31 32) (20 1 10) simpleGrading (1 1 1)		// B
    hex (5 4 31 32 7 6 33 34) (20 1 5) simpleGrading (1 1 1)		// C
    hex (7 6 33 34 9 8 35 36) (20 1 10) simpleGrading (1 1 1)		// D
    hex (9 8 35 36 11 10 37 38) (20 1 35) simpleGrading (1 1 1)		// E
    hex (10 12 39 37 16 14 41 43) (15 1 40) simpleGrading (1 1 1)	// F
    hex (11 10 37 38 15 16 43 42) (20 1 40) simpleGrading (1 1 1)	// G
    hex (15 16 43 42 17 18 45 44) (20 1 25) simpleGrading (1 1 1)	// H
    hex (17 18 45 44 19 20 47 46) (20 1 45) simpleGrading (1 1 1)	// I
    hex (19 20 47 46 21 22 49 48) (20 1 50) simpleGrading (1 1 1)	// J
    hex (21 22 49 48 23 24 51 50) (20 1 50) simpleGrading (1 1 1)	// K
    hex (23 24 51 50 25 26 53 52) (20 1 25) simpleGrading (1 1 1)	// L
);

edges
(
);


patches
(
    patch
          inlet
    (
	(6 33 35 8)
    )
);

mergePatchPairs
(
);

// ************************************************************************* //
