/*--------------------------------*- C++ -*----------------------------------*\
| =========                 |                                                 |
| \\      /  F ield         | OpenFOAM: The Open Source CFD Toolbox           |
|  \\    /   O peration     | Version:  v1706                                 |
|   \\  /    A nd           | Web:      www.OpenFOAM.com                      |
|    \\/     M anipulation  |                                                 |
\*---------------------------------------------------------------------------*/
FoamFile
{
    version     2.0;
    format      ascii;
    class       dictionary;
    object      blockMeshDict;
}
// * * * * * * * * * * * * * * * * * * * * * * * * * * * * * * * * * * * * * //

scale 1e-3; // vertices are in mm

vertices
(
    ( 0    0    0  )	//  0
    (1000  0    0  )	//  1
    (1000 1000  0  )	//  2
    ( 0   1000  0  )	//  3
    ( 0    0   1000)	//  4
    (1000  0   1000)	//  5
    (1000 1000 1000)	//  6
    ( 0   1000 1000)	//  7
    ( 400  0    0  )	//  8
    ( 600  0    0  )	//  9
    ( 600 1000  0  )	// 10
    ( 400 1000  0  )	// 11
);

blocks
(
    hex (0 1 2 3 4 5 6 7)
    (100 100 100)
    simpleGrading (1 1 1)
);

edges
(
);


patches
(
    patch
          inlet
    (
	(0 1 2 3)
    )
);

mergePatchPairs
(
);

// ************************************************************************* //
