/*--------------------------------*- C++ -*----------------------------------*\
| =========                 |                                                 |
| \\      /  F ield         | OpenFOAM: The Open Source CFD Toolbox           |
|  \\    /   O peration     | Version:  v1706                                 |
|   \\  /    A nd           | Web:      www.OpenFOAM.com                      |
|    \\/     M anipulation  |                                                 |
\*---------------------------------------------------------------------------*/
FoamFile
{
    version     2.0;
    format      ascii;
    class       dictionary;
    object      blockMeshDict;
}
// * * * * * * * * * * * * * * * * * * * * * * * * * * * * * * * * * * * * * //

scale 1e-3; // vertices are in mm

vertices
(
    (   0    0    0)	//  0
    ( 500    0    0)	//  1
    ( 500    1    0)	//  2
    (   0    1    0)	//  3
    (   0    0  500)	//  4
    ( 500    0  500)	//  5
    ( 500    1  500)	//  6
    (   0    1  500)	//  7
);

blocks
(
    hex (0 1 2 3 4 5 6 7) (40 1 40) simpleGrading (1 1 1)
);

edges
(
);


patches
(
    patch
          inlet
    (
	(0 1 2 3)
    )
);

mergePatchPairs
(
);

// ************************************************************************* //

